
Spectre (R) Circuit Simulator
Version 24.1.0.167.isr2 64bit -- 28 Nov 2024
Copyright (C) 1989-2024 Cadence Design Systems, Inc. All rights reserved worldwide. Cadence and Spectre are registered trademarks of Cadence Design Systems, Inc. All others are the property of their respective holders.

Includes RSA BSAFE(R) Cryptographic or Security Protocol Software from RSA Security, Inc.

User: yongfu   Host: river   HostID: 7F0100   PID: 2753111
Memory  available: 356.6309 GB  physical: 405.0724 GB
Linux   : Red Hat Enterprise Linux release 9.7 (Plow)
CPU Type: Intel(R) Xeon(R) CPU E5-2678 v3 @ 2.50GHz
        Socket: Processors [Frequency] (Hyperthreaded Processor)
        0:       0 [2934.5] ( 24 ),  1 [2902.5] ( 25 ),  2 [2942.0] ( 26 )
                 3 [3043.0] ( 27 ),  4 [2957.9] ( 28 ),  5 [3300.0] ( 29 )
                 6 [2969.2] ( 30 ),  7 [3300.0] ( 31 ),  8 [2984.8] ( 32 )
                 9 [3084.2] ( 33 ), 10 [3011.3] ( 34 ), 11 [2894.4] ( 35 )
        1:      12 [2677.4] ( 36 ), 13 [1453.7] ( 37 ), 14 [3300.0] ( 38 )
                15 [3300.0] ( 39 ), 16 [2934.8] ( 40 ), 17 [3300.0] ( 41 )
                18 [3300.0] ( 42 ), 19 [3300.0] ( 43 ), 20 [3300.0] ( 44 )
                21 [1747.9] ( 45 ), 22 [3300.0] ( 46 ), 23 [3300.0] ( 47 )
        
System load averages (1min, 5min, 15min) : 14.6 %, 41.4 %, 70.8 %
Hyperthreading is enabled


Simulating `/home/yongfu/proj/switch-model/outputs/spectre/bs/logs/netlists/parasitics_bench.scs' on river at 10:05:13 PM, Fri Jun 5, 2026 (process id: 2753111).
Current working directory: /home/yongfu/proj/switch-model/outputs/spectre/bs/logs/netlists
Command line:
    /eda/cadence/SPECTRE241/tools/bin/spectre -64  \
        /home/yongfu/proj/switch-model/outputs/spectre/bs/logs/netlists/parasitics_bench.scs  \
        +log spectre_parasitics.log

Licensing Information:
[22:05:13.080233] Configured Lic search path (24.01-s002): /eda/cadence/license.dat

Licensing Information:
[22:05:14.105633] Periodic Lic check successful

Loading /eda/cadence/SPECTRE241/tools.lnx86/cmi/lib/64bit/5.0/libinfineon_sh.so ...
Loading /eda/cadence/SPECTRE241/tools.lnx86/cmi/lib/64bit/5.0/libphilips_I_sh.so ...
Loading /eda/cadence/SPECTRE241/tools.lnx86/cmi/lib/64bit/5.0/libphilips_sh.so ...
Loading /eda/cadence/SPECTRE241/tools.lnx86/cmi/lib/64bit/5.0/libsparam_sh.so ...
Loading /eda/cadence/SPECTRE241/tools.lnx86/cmi/lib/64bit/5.0/libstmodels_sh.so ...
Reading file:  /home/yongfu/proj/switch-model/outputs/spectre/bs/logs/netlists/parasitics_bench.scs
Reading file:  /eda/cadence/SPECTRE241/tools.lnx86/spectre/etc/configs/spectre.cfg
Time for NDB Parsing: CPU = 168.635 ms, elapsed = 373.072 ms.
Time accumulated: CPU = 259.657 ms, elapsed = 373.074 ms.
Peak resident memory used = 188 Mbytes.

Time for Elaboration: CPU = 32.09 ms, elapsed = 16.175 ms.
Time accumulated: CPU = 291.863 ms, elapsed = 389.363 ms.
Peak resident memory used = 197 Mbytes.


Time for EDB Visiting: CPU = 332 us, elapsed = 337.124 us.
Time accumulated: CPU = 292.295 ms, elapsed = 389.8 ms.
Peak resident memory used = 198 Mbytes.


Notice from spectre during topology check.
    Only one connection to the following 5 nodes:
        mq
        mv
        mcf
        matt
        md
        Further occurrences of this notice will be suppressed.


Netlist title:
        // Parasitic metrics — charge injection and clock feedthrough (Spectre DC export).


Global user options:

Scoped user options:

Circuit inventory:
              nodes 5
            vsource 5     

Analysis and control statement inventory:
                 dc 1     

Output statements:
             .probe 0     
           .measure 0     
               save 1     

Time for parsing: CPU = 5.57 ms, elapsed = 4.38809 ms.
Time accumulated: CPU = 298.959 ms, elapsed = 394.283 ms.
Peak resident memory used = 201 Mbytes.

~~~~~~~~~~~~~~~~~~~~~~
Pre-Simulation Summary
~~~~~~~~~~~~~~~~~~~~~~
~~~~~~~~~~~~~~~~~~~~~~

******************
DC Analysis `dcOp'
******************

Opening the PSF file ./parasitics_bench.raw/dcOp.dc ...
Important parameter values:
    reltol = 1e-03
    abstol(V) = 1 uV
    abstol(I) = 1 pA
    temp = 27 C
    tnom = 27 C
    tempeffects = all
    gmindc = 1 pS

Maximum value achieved for any signal of each quantity: 
V: V(mq) = 90 V
I: I(Vm_q:p) = 0 A
Convergence achieved in 2 iterations.
DC simulation time: CPU = 4.411 ms, elapsed = 2.9881 ms.
Total time required for dc analysis `dcOp': CPU = 4.459 ms, elapsed = 3.03698 ms, util. = 147%.
Time accumulated: CPU = 325.114 ms, elapsed = 408.071 ms.
Peak resident memory used = 204 Mbytes.

Licensing Information:
Lic Summary:
[22:05:14.192378] Cdslmd servers:/eda/cadence/license.dat
[22:05:14.192404] Feature usage summary:
[22:05:14.192405] Virtuoso_Spectre


Aggregate audit (10:05:14 PM, Fri Jun 5, 2026):
Time used: CPU = 328 ms, elapsed = 410 ms, util. = 79.9%.
Time spent in licensing: elapsed = 255 ms, percentage of total = 62.1%.
Peak memory used = 206 Mbytes.
Simulation started at: 10:05:13 PM, Fri Jun 5, 2026, ended at: 10:05:14 PM, Fri Jun 5, 2026, with elapsed time (wall clock): 410 ms.
spectre completes with 0 errors, 0 warnings, and 2 notices.
