
Spectre (R) Circuit Simulator
Version 24.1.0.167.isr2 64bit -- 28 Nov 2024
Copyright (C) 1989-2024 Cadence Design Systems, Inc. All rights reserved worldwide. Cadence and Spectre are registered trademarks of Cadence Design Systems, Inc. All others are the property of their respective holders.

Includes RSA BSAFE(R) Cryptographic or Security Protocol Software from RSA Security, Inc.

User: yongfu   Host: river   HostID: 7F0100   PID: 2258165
Memory  available: 355.6070 GB  physical: 405.0724 GB
Linux   : Red Hat Enterprise Linux release 9.7 (Plow)
CPU Type: Intel(R) Xeon(R) CPU E5-2678 v3 @ 2.50GHz
        Socket: Processors [Frequency] (Hyperthreaded Processor)
        0:       0 [2799.7] ( 24 ),  1 [2799.8] ( 25 ),  2 [2799.7] ( 26 )
                 3 [2799.8] ( 27 ),  4 [2799.7] ( 28 ),  5 [2799.7] ( 29 )
                 6 [2799.7] ( 30 ),  7 [2799.7] ( 31 ),  8 [2799.7] ( 32 )
                 9 [2799.7] ( 33 ), 10 [2799.7] ( 34 ), 11 [2799.7] ( 35 )
        1:      12 [2899.7] ( 36 ), 13 [2899.7] ( 37 ), 14 [2899.8] ( 38 )
                15 [2899.7] ( 39 ), 16 [2899.7] ( 40 ), 17 [2899.7] ( 41 )
                18 [2801.5] ( 42 ), 19 [2801.5] ( 43 ), 20 [2801.5] ( 44 )
                21 [2801.4] ( 45 ), 22 [2801.5] ( 46 ), 23 [2801.5] ( 47 )
        
System load averages (1min, 5min, 15min) : 112.5 %, 48.8 %, 21.4 %
Hyperthreading is enabled


Simulating `/home/yongfu/proj/switch-model/outputs/spectre/bs/logs/netlists/ron_sweep.scs' on river at 5:48:41 PM, Fri Jun 5, 2026 (process id: 2258165).
Current working directory: /home/yongfu/proj/switch-model/outputs/spectre/bs/logs/netlists
Command line:
    /eda/cadence/SPECTRE241/tools/bin/spectre -64  \
        /home/yongfu/proj/switch-model/outputs/spectre/bs/logs/netlists/ron_sweep.scs  \
        +log spectre_ron.log

Licensing Information:
[17:48:41.080329] Configured Lic search path (24.01-s002): /eda/cadence/license.dat

Licensing Information:
[17:48:42.175001] Periodic Lic check successful

Loading /eda/cadence/SPECTRE241/tools.lnx86/cmi/lib/64bit/5.0/libinfineon_sh.so ...
Loading /eda/cadence/SPECTRE241/tools.lnx86/cmi/lib/64bit/5.0/libphilips_I_sh.so ...
Loading /eda/cadence/SPECTRE241/tools.lnx86/cmi/lib/64bit/5.0/libphilips_sh.so ...
Loading /eda/cadence/SPECTRE241/tools.lnx86/cmi/lib/64bit/5.0/libsparam_sh.so ...
Loading /eda/cadence/SPECTRE241/tools.lnx86/cmi/lib/64bit/5.0/libstmodels_sh.so ...
Reading file:  /home/yongfu/proj/switch-model/outputs/spectre/bs/logs/netlists/ron_sweep.scs
Reading file:  /eda/cadence/SPECTRE241/tools.lnx86/spectre/etc/configs/spectre.cfg
Reading file:  /home/yongfu/proj/switch-model/veriloga/configurable_switch.va
Reading file:  /eda/cadence/SPECTRE241/tools.lnx86/spectre/etc/ahdl/constants.vams
Reading file:  /eda/cadence/SPECTRE241/tools.lnx86/spectre/etc/ahdl/disciplines.vams

Error found by spectre during AHDL read-in.
    ERROR (VACOMP-2152): "/home/yongfu/proj/switch-model/veriloga/configurable_switch.va", line 128: Encountered the `ddt' analog operator embedded in a conditionally-executed statement or in an expression. The software does not support this use. Do not use the `ddt' analog operator in a conditionally-executed statement or in an expression.
    ERROR (VACOMP-2152): "/home/yongfu/proj/switch-model/veriloga/configurable_switch.va", line 130: Encountered the `ddt' analog operator embedded in a conditionally-executed statement or in an expression. The software does not support this use. Do not use the `ddt' analog operator in a conditionally-executed statement or in an expression.

Time for NDB Parsing: CPU = 282.634 ms, elapsed = 585.637 ms.
Time accumulated: CPU = 409.677 ms, elapsed = 585.64 ms.
Peak resident memory used = 193 Mbytes.

Licensing Information:
Lic Summary:
[17:48:42.280121] Cdslmd servers:/eda/cadence/license.dat
[17:48:42.280165] Feature usage summary:
[17:48:42.280167] Virtuoso_Spectre


Aggregate audit (5:48:42 PM, Fri Jun 5, 2026):
Time used: CPU = 423 ms, elapsed = 599 ms, util. = 70.7%.
Time spent in licensing: elapsed = 389 ms, percentage of total = 64.9%.
Peak memory used = 194 Mbytes.
Simulation started at: 5:48:41 PM, Fri Jun 5, 2026, ended at: 5:48:42 PM, Fri Jun 5, 2026, with elapsed time (wall clock): 599 ms.
spectre completes with 2 errors, 0 warnings, and 0 notices.
spectre terminated prematurely due to fatal error.
