
Spectre (R) Circuit Simulator
Version 24.1.0.167.isr2 64bit -- 28 Nov 2024
Copyright (C) 1989-2024 Cadence Design Systems, Inc. All rights reserved
        worldwide. Cadence and Spectre are registered trademarks of Cadence
        Design Systems, Inc. All others are the property of their respective
        holders.

Includes RSA BSAFE(R) Cryptographic or Security Protocol Software from RSA
        Security, Inc.

User: yongfu   Host: river   HostID: 7F0100   PID: 2747554
Memory  available: 356.5598 GB  physical: 405.0724 GB
Linux   : Red Hat Enterprise Linux release 9.7 (Plow)
CPU Type: Intel(R) Xeon(R) CPU E5-2678 v3 @ 2.50GHz
        Socket: Processors [Frequency] (Hyperthreaded Processor)
        0:       0 [3002.0] ( 24 ),  1 [3300.0] ( 25 ),  2 [3300.0] ( 26 )
                 3 [2899.7] ( 27 ),  4 [2899.6] ( 28 ),  5 [3300.0] ( 29 )
                 6 [2900.1] ( 30 ),  7 [3300.0] ( 31 ),  8 [2900.5] ( 32 )
                 9 [2895.0] ( 33 ), 10 [2931.5] ( 34 ), 11 [2900.2] ( 35 )
        1:      12 [3087.2] ( 36 ), 13 [2975.1] ( 37 ), 14 [3300.0] ( 38 )
                15 [3300.0] ( 39 ), 16 [3300.0] ( 40 ), 17 [3300.0] ( 41 )
                18 [3300.0] ( 42 ), 19 [3214.6] ( 43 ), 20 [3041.7] ( 44 )
                21 [3300.0] ( 45 ), 22 [3214.9] ( 46 ), 23 [3300.0] ( 47 )
        
System load averages (1min, 5min, 15min) : 25.3 %, 47.3 %, 74.0 %
Hyperthreading is enabled


Simulating
        `/home/yongfu/proj/switch-model/outputs/spectre/nmos/logs/netlists/ron_sweep.scs'
        on river at 10:04:29 PM, Fri Jun 5, 2026 (process id: 2747554).
Current working directory:
        /home/yongfu/proj/switch-model/outputs/spectre/nmos/logs/netlists
Command line:
    /eda/cadence/SPECTRE241/tools/bin/spectre -64  \
        /home/yongfu/proj/switch-model/outputs/spectre/nmos/logs/netlists/ron_sweep.scs
        \
        +log spectre_ron.log
Licensing Information:
[22:04:29.080281] Configured Lic search path (24.01-s002):
        /eda/cadence/license.dat

Licensing Information:
[22:04:30.073721] Periodic Lic check successful

Reading file: 
        /home/yongfu/proj/switch-model/outputs/spectre/nmos/logs/netlists/ron_sweep.scs
Reading file: 
        /eda/cadence/SPECTRE241/tools.lnx86/spectre/etc/configs/spectre.cfg
Reading file:  /home/yongfu/proj/switch-model/veriloga/configurable_switch.va
Reading file: 
        /eda/cadence/SPECTRE241/tools.lnx86/spectre/etc/ahdl/constants.vams
Reading file: 
        /eda/cadence/SPECTRE241/tools.lnx86/spectre/etc/ahdl/disciplines.vams

Notice from spectre during AHDL read-in.
    "/home/yongfu/proj/switch-model/veriloga/configurable_switch.va", line 18: 
        Module configurable_switch is a compact model. As a result, it has been
        optimized automatically for better performance. For more information on
        compact models, refer to the Cadence Verilog-A Language Reference
        manual.

Time for NDB Parsing: CPU = 214.875 ms, elapsed = 397.832 ms.
Time accumulated: CPU = 306.906 ms, elapsed = 397.834 ms.
Peak resident memory used = 193 Mbytes.

Compiling ahdlcmi module library for configurable_switch.
Finished compilation in 2.39 s (elapsed) for configurable_switch.
Installed compiled interface for configurable_switch.
Time for Elaboration: CPU = 2.54017 s, elapsed = 2.46576 s.
Time accumulated: CPU = 2.84819 s, elapsed = 2.86373 s.
Peak resident memory used = 214 Mbytes.


Time for EDB Visiting: CPU = 1.931 ms, elapsed = 937.939 us.
Time accumulated: CPU = 2.85023 s, elapsed = 2.86478 s.
Peak resident memory used = 215 Mbytes.


Netlist title:
        // Ron DC sweep — Spectre + Verilog-A configurable_switch


Global user options:

Scoped user options:

Circuit inventory:
              nodes 6
configurable_switch 1     
           resistor 1     
            vsource 5     

Analysis and control statement inventory:
                 dc 1     

Output statements:
             .probe 0     
           .measure 0     
               save 1     


Notice from spectre during initial setup.
    1 resistor is changed to resistance form because its value is less than
        'rthresh'.

Time for parsing: CPU = 7.098 ms, elapsed = 4.96697 ms.
Time accumulated: CPU = 2.85742 s, elapsed = 2.86983 s.
Peak resident memory used = 218 Mbytes.

~~~~~~~~~~~~~~~~~~~~~~
Pre-Simulation Summary
~~~~~~~~~~~~~~~~~~~~~~
~~~~~~~~~~~~~~~~~~~~~~

*****************************************
DC Analysis `dc': Vin:dc = (0 V -> 1.8 V)
*****************************************

Opening the PSF file ./ron_sweep.raw/dc.dc ...
Important parameter values:
    reltol = 1e-03
    abstol(V) = 1 uV
    abstol(I) = 1 pA
    temp = 27 C
    tnom = 27 C
    tempeffects = all
    gmindc = 1 pS
......9......8......7......6......5......4......3......2......1......0

Maximum value achieved for any signal of each quantity: 
V: V(in) = 1.8 V
I: I(Vin:p) = 1.8 pA
DC simulation time: CPU = 9.975 ms, elapsed = 5.29814 ms.

Notice from spectre at dc = 1.8 V during DC analysis `dc'.
    The value of parameter 'dc' has been reset to the original value 0.

Total time required for dc analysis `dc': CPU = 10.031 ms, elapsed = 5.35297
        ms, util. = 187%.
Time accumulated: CPU = 2.89177 s, elapsed = 2.88758 s.
Peak resident memory used = 218 Mbytes.

Licensing Information:
Lic Summary:
[22:04:32.114592] Cdslmd servers:/eda/cadence/license.dat
[22:04:32.638901] Feature usage summary:
[22:04:32.638902] Virtuoso_Spectre


Aggregate audit (10:04:32 PM, Fri Jun 5, 2026):
Time used: CPU = 2.9 s, elapsed = 2.9 s, util. = 100%.
Time spent in licensing: elapsed = 256 ms, percentage of total = 8.85%.
Peak memory used = 217 Mbytes.
Simulation started at: 10:04:29 PM, Fri Jun 5, 2026, ended at: 10:04:32 PM, Fri
        Jun 5, 2026, with elapsed time (wall clock): 2.9 s.
spectre completes with 0 errors, 0 warnings, and 4 notices.
