
Spectre (R) Circuit Simulator
Version 24.1.0.167.isr2 64bit -- 28 Nov 2024
Copyright (C) 1989-2024 Cadence Design Systems, Inc. All rights reserved worldwide. Cadence and Spectre are registered trademarks of Cadence Design Systems, Inc. All others are the property of their respective holders.

Includes RSA BSAFE(R) Cryptographic or Security Protocol Software from RSA Security, Inc.

User: yongfu   Host: river   HostID: 7F0100   PID: 2753206
Memory  available: 356.5976 GB  physical: 405.0724 GB
Linux   : Red Hat Enterprise Linux release 9.7 (Plow)
CPU Type: Intel(R) Xeon(R) CPU E5-2678 v3 @ 2.50GHz
        Socket: Processors [Frequency] (Hyperthreaded Processor)
        0:       0 [3059.2] ( 24 ),  1 [2900.7] ( 25 ),  2 [3300.0] ( 26 )
                 3 [3300.0] ( 27 ),  4 [2900.5] ( 28 ),  5 [2901.1] ( 29 )
                 6 [3300.0] ( 30 ),  7 [3040.1] ( 31 ),  8 [2900.0] ( 32 )
                 9 [3300.0] ( 33 ), 10 [3126.5] ( 34 ), 11 [3300.0] ( 35 )
        1:      12 [2943.9] ( 36 ), 13 [2910.1] ( 37 ), 14 [2902.0] ( 38 )
                15 [3300.0] ( 39 ), 16 [3300.0] ( 40 ), 17 [3300.0] ( 41 )
                18 [3300.0] ( 42 ), 19 [3300.0] ( 43 ), 20 [3300.0] ( 44 )
                21 [2331.4] ( 45 ), 22 [2899.9] ( 46 ), 23 [3025.3] ( 47 )
        
System load averages (1min, 5min, 15min) : 14.6 %, 41.4 %, 70.8 %
Hyperthreading is enabled


Simulating `/home/yongfu/proj/switch-model/outputs/spectre/bs_dummy/logs/netlists/ron_sweep.scs' on river at 10:05:14 PM, Fri Jun 5, 2026 (process id: 2753206).
Current working directory: /home/yongfu/proj/switch-model/outputs/spectre/bs_dummy/logs/netlists
Command line:
    /eda/cadence/SPECTRE241/tools/bin/spectre -64  \
        /home/yongfu/proj/switch-model/outputs/spectre/bs_dummy/logs/netlists/ron_sweep.scs  \
        +log spectre_ron.log

Licensing Information:
[22:05:14.080241] Configured Lic search path (24.01-s002): /eda/cadence/license.dat

Licensing Information:
[22:05:15.192682] Periodic Lic check successful

Loading /eda/cadence/SPECTRE241/tools.lnx86/cmi/lib/64bit/5.0/libinfineon_sh.so ...
Loading /eda/cadence/SPECTRE241/tools.lnx86/cmi/lib/64bit/5.0/libphilips_I_sh.so ...
Loading /eda/cadence/SPECTRE241/tools.lnx86/cmi/lib/64bit/5.0/libphilips_sh.so ...
Loading /eda/cadence/SPECTRE241/tools.lnx86/cmi/lib/64bit/5.0/libsparam_sh.so ...
Loading /eda/cadence/SPECTRE241/tools.lnx86/cmi/lib/64bit/5.0/libstmodels_sh.so ...
Reading file:  /home/yongfu/proj/switch-model/outputs/spectre/bs_dummy/logs/netlists/ron_sweep.scs
Reading file:  /eda/cadence/SPECTRE241/tools.lnx86/spectre/etc/configs/spectre.cfg
Reading file:  /home/yongfu/proj/switch-model/veriloga/configurable_switch.va
Reading file:  /eda/cadence/SPECTRE241/tools.lnx86/spectre/etc/ahdl/constants.vams
Reading file:  /eda/cadence/SPECTRE241/tools.lnx86/spectre/etc/ahdl/disciplines.vams

Notice from spectre during AHDL read-in.
    "/home/yongfu/proj/switch-model/veriloga/configurable_switch.va", line 18:  Module configurable_switch is a compact model. As a result, it has been optimized automatically for better performance. For more information on compact models, refer to the Cadence Verilog-A Language Reference manual.

Time for NDB Parsing: CPU = 216.832 ms, elapsed = 395.772 ms.
Time accumulated: CPU = 307.108 ms, elapsed = 395.774 ms.
Peak resident memory used = 193 Mbytes.

Created directory ./ron_sweep.ahdlSimDB/ (775)
Created directory ./ron_sweep.ahdlSimDB//0afd0f950a95451499edd7e7a8982e3e.configurable_switch.ahdlcmi/ (775)
Created directory ./ron_sweep.ahdlSimDB//0afd0f950a95451499edd7e7a8982e3e.configurable_switch.ahdlcmi/Linux-64/ (775)
Compiling ahdlcmi module library for configurable_switch.
Finished compilation in 2.31 s (elapsed) for configurable_switch.
Installed compiled interface for configurable_switch.
Time for Elaboration: CPU = 2.46207 s, elapsed = 2.38782 s.
Time accumulated: CPU = 2.76929 s, elapsed = 2.78371 s.
Peak resident memory used = 213 Mbytes.


Time for EDB Visiting: CPU = 1.991 ms, elapsed = 995.874 us.
Time accumulated: CPU = 2.77139 s, elapsed = 2.78481 s.
Peak resident memory used = 214 Mbytes.


Netlist title:
        // Ron DC sweep — Spectre + Verilog-A configurable_switch


Global user options:

Scoped user options:

Circuit inventory:
              nodes 6
configurable_switch 1     
           resistor 1     
            vsource 5     

Analysis and control statement inventory:
                 dc 1     

Output statements:
             .probe 0     
           .measure 0     
               save 1     


Notice from spectre during initial setup.
    1 resistor is changed to resistance form because its value is less than 'rthresh'.

Time for parsing: CPU = 16.203 ms, elapsed = 14.0712 ms.
Time accumulated: CPU = 2.78771 s, elapsed = 2.799 s.
Peak resident memory used = 218 Mbytes.

~~~~~~~~~~~~~~~~~~~~~~
Pre-Simulation Summary
~~~~~~~~~~~~~~~~~~~~~~
~~~~~~~~~~~~~~~~~~~~~~

*****************************************
DC Analysis `dc': Vin:dc = (0 V -> 1.8 V)
*****************************************

Opening the PSF file ./ron_sweep.raw/dc.dc ...
Important parameter values:
    reltol = 1e-03
    abstol(V) = 1 uV
    abstol(I) = 1 pA
    temp = 27 C
    tnom = 27 C
    tempeffects = all
    gmindc = 1 pS
......9......8......7......6......5......4......3......2......1......0

Maximum value achieved for any signal of each quantity: 
V: V(in) = 1.8 V
I: I(Vin:p) = 9 mA
DC simulation time: CPU = 9.947 ms, elapsed = 5.54681 ms.

Notice from spectre at dc = 1.8 V during DC analysis `dc'.
    The value of parameter 'dc' has been reset to the original value 0.

Total time required for dc analysis `dc': CPU = 10.005 ms, elapsed = 5.60498 ms, util. = 179%.
Time accumulated: CPU = 2.82191 s, elapsed = 2.81693 s.
Peak resident memory used = 218 Mbytes.

Licensing Information:
Lic Summary:
[22:05:17.166409] Cdslmd servers:/eda/cadence/license.dat
[22:05:17.690725] Feature usage summary:
[22:05:17.690725] Virtuoso_Spectre


Aggregate audit (10:05:17 PM, Fri Jun 5, 2026):
Time used: CPU = 2.83 s, elapsed = 2.83 s, util. = 100%.
Time spent in licensing: elapsed = 252 ms, percentage of total = 8.93%.
Peak memory used = 217 Mbytes.
Simulation started at: 10:05:14 PM, Fri Jun 5, 2026, ended at: 10:05:17 PM, Fri Jun 5, 2026, with elapsed time (wall clock): 2.83 s.
spectre completes with 0 errors, 0 warnings, and 4 notices.
