
Spectre (R) Circuit Simulator
Version 24.1.0.167.isr2 64bit -- 28 Nov 2024
Copyright (C) 1989-2024 Cadence Design Systems, Inc. All rights reserved worldwide. Cadence and Spectre are registered trademarks of Cadence Design Systems, Inc. All others are the property of their respective holders.

Includes RSA BSAFE(R) Cryptographic or Security Protocol Software from RSA Security, Inc.

User: yongfu   Host: river   HostID: 7F0100   PID: 3047621
Memory  available: 359.6855 GB  physical: 405.0724 GB
Linux   : Red Hat Enterprise Linux release 9.7 (Plow)
CPU Type: Intel(R) Xeon(R) CPU E5-2678 v3 @ 2.50GHz
        Socket: Processors [Frequency] (Hyperthreaded Processor)
        0:       0 [2905.4] ( 24 ),  1 [3300.0] ( 25 ),  2 [3300.0] ( 26 )
                 3 [3300.0] ( 27 ),  4 [2887.0] ( 28 ),  5 [3060.9] ( 29 )
                 6 [2950.2] ( 30 ),  7 [3300.0] ( 31 ),  8 [2900.5] ( 32 )
                 9 [3300.0] ( 33 ), 10 [3300.0] ( 34 ), 11 [3025.5] ( 35 )
        1:      12 [2899.1] ( 36 ), 13 [2899.7] ( 37 ), 14 [2899.8] ( 38 )
                15 [2896.8] ( 39 ), 16 [3300.0] ( 40 ), 17 [3300.0] ( 41 )
                18 [3300.0] ( 42 ), 19 [3300.0] ( 43 ), 20 [2899.5] ( 44 )
                21 [1200.0] ( 45 ), 22 [3300.0] ( 46 ), 23 [3300.0] ( 47 )
        
System load averages (1min, 5min, 15min) : 20.2 %, 7.4 %, 5.4 %
Hyperthreading is enabled


Simulating `/home/yongfu/proj/switch-fitting/model/switch-model/outputs/spectre/bs_dummy/logs/netlists/ron_sweep.scs' on river at 1:05:48 AM, Sat Jun 6, 2026 (process id: 3047621).
Current working directory: /home/yongfu/proj/switch-fitting/model/switch-model/outputs/spectre/bs_dummy/logs/netlists
Command line:
    /eda/cadence/SPECTRE241/tools/bin/spectre -64  \
        /home/yongfu/proj/switch-fitting/model/switch-model/outputs/spectre/bs_dummy/logs/netlists/ron_sweep.scs  \
        +log spectre_ron.log

Licensing Information:
[01:05:48.080273] Configured Lic search path (24.01-s002): /eda/cadence/license.dat

Licensing Information:
[01:05:48.406651] Periodic Lic check successful

Loading /eda/cadence/SPECTRE241/tools.lnx86/cmi/lib/64bit/5.0/libinfineon_sh.so ...
Loading /eda/cadence/SPECTRE241/tools.lnx86/cmi/lib/64bit/5.0/libphilips_I_sh.so ...
Loading /eda/cadence/SPECTRE241/tools.lnx86/cmi/lib/64bit/5.0/libphilips_sh.so ...
Loading /eda/cadence/SPECTRE241/tools.lnx86/cmi/lib/64bit/5.0/libsparam_sh.so ...
Loading /eda/cadence/SPECTRE241/tools.lnx86/cmi/lib/64bit/5.0/libstmodels_sh.so ...
Reading file:  /home/yongfu/proj/switch-fitting/model/switch-model/outputs/spectre/bs_dummy/logs/netlists/ron_sweep.scs
Reading file:  /eda/cadence/SPECTRE241/tools.lnx86/spectre/etc/configs/spectre.cfg
Reading file:  /home/yongfu/proj/switch-fitting/model/switch-model/veriloga/configurable_switch.va
Reading file:  /eda/cadence/SPECTRE241/tools.lnx86/spectre/etc/ahdl/constants.vams
Reading file:  /eda/cadence/SPECTRE241/tools.lnx86/spectre/etc/ahdl/disciplines.vams
Time for NDB Parsing: CPU = 176.372 ms, elapsed = 381.109 ms.
Time accumulated: CPU = 270.163 ms, elapsed = 381.111 ms.
Peak resident memory used = 193 Mbytes.

Existing shared object for module configurable_switch is up to date.
Installed compiled interface for configurable_switch.
Time for Elaboration: CPU = 35.166 ms, elapsed = 17.2751 ms.
Time accumulated: CPU = 305.44 ms, elapsed = 398.496 ms.
Peak resident memory used = 201 Mbytes.


Time for EDB Visiting: CPU = 552 us, elapsed = 550.985 us.
Time accumulated: CPU = 306.104 ms, elapsed = 399.158 ms.
Peak resident memory used = 203 Mbytes.


Netlist title:
        // Ron DC sweep — Spectre + Verilog-A configurable_switch


Global user options:

Scoped user options:

Circuit inventory:
              nodes 6
configurable_switch 1     
           resistor 1     
            vsource 5     

Analysis and control statement inventory:
                 dc 1     

Output statements:
             .probe 0     
           .measure 0     
               save 1     


Notice from spectre during initial setup.
    1 resistor is changed to resistance form because its value is less than 'rthresh'.

Time for parsing: CPU = 12.036 ms, elapsed = 9.68695 ms.
Time accumulated: CPU = 318.217 ms, elapsed = 408.923 ms.
Peak resident memory used = 206 Mbytes.

~~~~~~~~~~~~~~~~~~~~~~
Pre-Simulation Summary
~~~~~~~~~~~~~~~~~~~~~~
~~~~~~~~~~~~~~~~~~~~~~

*****************************************
DC Analysis `dc': Vin:dc = (0 V -> 1.8 V)
*****************************************

Opening the PSF file ./ron_sweep.raw/dc.dc ...
Important parameter values:
    reltol = 1e-03
    abstol(V) = 1 uV
    abstol(I) = 1 pA
    temp = 27 C
    tnom = 27 C
    tempeffects = all
    gmindc = 1 pS
......9......8......7......6......5......4......3......2......1......0

Maximum value achieved for any signal of each quantity: 
V: V(in) = 1.8 V
I: I(Vin:p) = 9 mA
DC simulation time: CPU = 9.615 ms, elapsed = 5.70798 ms.

Notice from spectre at dc = 1.8 V during DC analysis `dc'.
    The value of parameter 'dc' has been reset to the original value 0.

Total time required for dc analysis `dc': CPU = 9.668 ms, elapsed = 5.759 ms, util. = 168%.
Time accumulated: CPU = 351.158 ms, elapsed = 426.233 ms.
Peak resident memory used = 209 Mbytes.

Licensing Information:
Lic Summary:
[01:05:49.031144] Cdslmd servers:/eda/cadence/license.dat
[01:05:49.031173] Feature usage summary:
[01:05:49.031174] Virtuoso_Spectre


Aggregate audit (1:05:49 AM, Sat Jun 6, 2026):
Time used: CPU = 355 ms, elapsed = 429 ms, util. = 82.7%.
Time spent in licensing: elapsed = 255 ms, percentage of total = 59.5%.
Peak memory used = 210 Mbytes.
Simulation started at: 1:05:48 AM, Sat Jun 6, 2026, ended at: 1:05:49 AM, Sat Jun 6, 2026, with elapsed time (wall clock): 429 ms.
spectre completes with 0 errors, 0 warnings, and 3 notices.
