
Note: No compatibility mode selected!


Circuit: switch_model_ngspice_noise_sweep

Doing analysis at TEMP = 27.000000 and TNOM = 27.000000

Using SPARSE 1.3 as Direct Linear Solver

No. of Data Rows : 61

No. of Data Rows : 61

No. of Data Rows : 1
Note: Simulation executed from .control section 
