
Note: No compatibility mode selected!


Circuit: switch_model_ngspice_parasitics_bench

Doing analysis at TEMP = 27.000000 and TNOM = 27.000000

Using SPARSE 1.3 as Direct Linear Solver

No. of Data Rows : 1
Doing analysis at TEMP = 27.000000 and TNOM = 27.000000

Using SPARSE 1.3 as Direct Linear Solver

No. of Data Rows : 1
	Node                                  Voltage
	----                                  -------
	----	-------
	V(1)                             0.000000e+00

	Source	Current
	------	-------


 Resistor models (Simple linear resistor)
      model                     R

        rsh                     0
     narrow                     0
      short                     0
        tc1                     0
        tc2                     0
        tce                     0
       defw                 1e-05
          l                 1e-05
         kf                     0
         af                     0
          r                     0
     bv_max                 1e+99
         lf                     1
         wf                     1
         ef                     1

 Resistor: Simple linear resistor
     device                rdummy
      model                     R
 resistance                     1
         ac                     1
      dtemp                     0
     bv_max                 1e+99
      noisy                     1
          i                     0
          p                     0


Total analysis time (seconds) = 0.00017928

Total elapsed time (seconds) = 0.003 

Total DRAM available = 386307.215 MB.
DRAM currently available = 10812.305 MB.
Maximum ngspice program size =   24.984 MB.
Current ngspice program size =   13.160 MB.

Shared ngspice pages =   11.723 MB.
Text (code) pages =    6.266 MB.
Stack = 0 bytes.
Library pages =    2.129 MB.

