
Spectre (R) Circuit Simulator
Version 24.1.0.167.isr2 64bit -- 28 Nov 2024
Copyright (C) 1989-2024 Cadence Design Systems, Inc. All rights reserved
        worldwide. Cadence and Spectre are registered trademarks of Cadence
        Design Systems, Inc. All others are the property of their respective
        holders.

Includes RSA BSAFE(R) Cryptographic or Security Protocol Software from RSA
        Security, Inc.

User: yongfu   Host: river   HostID: 7F0100   PID: 2752326
Memory  available: 356.5470 GB  physical: 405.0724 GB
Linux   : Red Hat Enterprise Linux release 9.7 (Plow)
CPU Type: Intel(R) Xeon(R) CPU E5-2678 v3 @ 2.50GHz
        Socket: Processors [Frequency] (Hyperthreaded Processor)
        0:       0 [3010.9] ( 24 ),  1 [3205.7] ( 25 ),  2 [3300.0] ( 26 )
                 3 [3300.0] ( 27 ),  4 [3300.0] ( 28 ),  5 [3300.0] ( 29 )
                 6 [3300.0] ( 30 ),  7 [3300.0] ( 31 ),  8 [3252.3] ( 32 )
                 9 [3300.0] ( 33 ), 10 [3300.0] ( 34 ), 11 [3300.0] ( 35 )
        1:      12 [3300.0] ( 36 ), 13 [3300.0] ( 37 ), 14 [3300.0] ( 38 )
                15 [3300.0] ( 39 ), 16 [1200.4] ( 40 ), 17 [3300.0] ( 41 )
                18 [3300.0] ( 42 ), 19 [3300.0] ( 43 ), 20 [3300.0] ( 44 )
                21 [1200.2] ( 45 ), 22 [3300.0] ( 46 ), 23 [3300.0] ( 47 )
        
System load averages (1min, 5min, 15min) : 16.5 %, 42.7 %, 71.5 %
Hyperthreading is enabled


Simulating
        `/home/yongfu/proj/switch-model/outputs/spectre/nmos_dummy/logs/netlists/parasitics_bench.scs'
        on river at 10:05:05 PM, Fri Jun 5, 2026 (process id: 2752326).
Current working directory:
        /home/yongfu/proj/switch-model/outputs/spectre/nmos_dummy/logs/netlists
Command line:
    /eda/cadence/SPECTRE241/tools/bin/spectre -64  \
        /home/yongfu/proj/switch-model/outputs/spectre/nmos_dummy/logs/netlists/parasitics_bench.scs
        \
        +log spectre_parasitics.log
Licensing Information:
[22:05:05.080241] Configured Lic search path (24.01-s002):
        /eda/cadence/license.dat

Licensing Information:
[22:05:05.012760] Periodic Lic check successful

Reading file: 
        /home/yongfu/proj/switch-model/outputs/spectre/nmos_dummy/logs/netlists/parasitics_bench.scs
Reading file: 
        /eda/cadence/SPECTRE241/tools.lnx86/spectre/etc/configs/spectre.cfg
Time for NDB Parsing: CPU = 167.327 ms, elapsed = 369.869 ms.
Time accumulated: CPU = 259.478 ms, elapsed = 369.871 ms.
Peak resident memory used = 188 Mbytes.

Time for Elaboration: CPU = 32.729 ms, elapsed = 16.881 ms.
Time accumulated: CPU = 293.314 ms, elapsed = 386.873 ms.
Peak resident memory used = 197 Mbytes.


Time for EDB Visiting: CPU = 339 us, elapsed = 339.031 us.
Time accumulated: CPU = 294.767 ms, elapsed = 387.333 ms.
Peak resident memory used = 198 Mbytes.


Notice from spectre during topology check.
    Only one connection to the following 5 nodes:
        mq
        mv
        mcf
        matt
        md
        Further occurrences of this notice will be suppressed (except in log
        file).


Netlist title:
        // Parasitic metrics — charge injection and clock feedthrough
        (Spectre DC export).


Global user options:

Scoped user options:

Circuit inventory:
              nodes 5
            vsource 5     

Analysis and control statement inventory:
                 dc 1     

Output statements:
             .probe 0     
           .measure 0     
               save 1     

Time for parsing: CPU = 14.582 ms, elapsed = 13.3929 ms.
Time accumulated: CPU = 309.424 ms, elapsed = 400.801 ms.
Peak resident memory used = 201 Mbytes.

~~~~~~~~~~~~~~~~~~~~~~
Pre-Simulation Summary
~~~~~~~~~~~~~~~~~~~~~~
~~~~~~~~~~~~~~~~~~~~~~

******************
DC Analysis `dcOp'
******************

Opening the PSF file ./parasitics_bench.raw/dcOp.dc ...
Important parameter values:
    reltol = 1e-03
    abstol(V) = 1 uV
    abstol(I) = 1 pA
    temp = 27 C
    tnom = 27 C
    tempeffects = all
    gmindc = 1 pS

Maximum value achieved for any signal of each quantity: 
V: V(md) = 50 V
I: I(Vm_q:p) = 0 A
Convergence achieved in 2 iterations.
DC simulation time: CPU = 4.421 ms, elapsed = 2.96211 ms.
Total time required for dc analysis `dcOp': CPU = 4.472 ms, elapsed = 3.01099
        ms, util. = 149%.
Time accumulated: CPU = 337.038 ms, elapsed = 415.014 ms.
Peak resident memory used = 204 Mbytes.

Licensing Information:
Lic Summary:
[22:05:05.109882] Cdslmd servers:/eda/cadence/license.dat
[22:05:05.634196] Feature usage summary:
[22:05:05.634197] Virtuoso_Spectre


Aggregate audit (10:05:05 PM, Fri Jun 5, 2026):
Time used: CPU = 340 ms, elapsed = 417 ms, util. = 81.5%.
Time spent in licensing: elapsed = 252 ms, percentage of total = 60.5%.
Peak memory used = 205 Mbytes.
Simulation started at: 10:05:05 PM, Fri Jun 5, 2026, ended at: 10:05:05 PM, Fri
        Jun 5, 2026, with elapsed time (wall clock): 417 ms.
spectre completes with 0 errors, 0 warnings, and 2 notices.
