
Spectre (R) Circuit Simulator
Version 24.1.0.167.isr2 64bit -- 28 Nov 2024
Copyright (C) 1989-2024 Cadence Design Systems, Inc. All rights reserved worldwide. Cadence and Spectre are registered trademarks of Cadence Design Systems, Inc. All others are the property of their respective holders.

Includes RSA BSAFE(R) Cryptographic or Security Protocol Software from RSA Security, Inc.

User: yongfu   Host: river   HostID: 7F0100   PID: 3046580
Memory  available: 359.8366 GB  physical: 405.0724 GB
Linux   : Red Hat Enterprise Linux release 9.7 (Plow)
CPU Type: Intel(R) Xeon(R) CPU E5-2678 v3 @ 2.50GHz
        Socket: Processors [Frequency] (Hyperthreaded Processor)
        0:       0 [2945.1] ( 24 ),  1 [3300.0] ( 25 ),  2 [3300.0] ( 26 )
                 3 [2928.0] ( 27 ),  4 [2941.6] ( 28 ),  5 [2900.0] ( 29 )
                 6 [3300.0] ( 30 ),  7 [3300.0] ( 31 ),  8 [3300.0] ( 32 )
                 9 [3300.0] ( 33 ), 10 [3300.0] ( 34 ), 11 [3300.0] ( 35 )
        1:      12 [3300.0] ( 36 ), 13 [3300.0] ( 37 ), 14 [3300.0] ( 38 )
                15 [3300.0] ( 39 ), 16 [3300.0] ( 40 ), 17 [3300.0] ( 41 )
                18 [3300.0] ( 42 ), 19 [3299.7] ( 43 ), 20 [3300.0] ( 44 )
                21 [3300.0] ( 45 ), 22 [3019.8] ( 46 ), 23 [3300.0] ( 47 )
        
System load averages (1min, 5min, 15min) : 22.3 %, 7.3 %, 5.3 %
Hyperthreading is enabled


Simulating `/home/yongfu/proj/switch-fitting/model/switch-model/outputs/spectre/cmos/logs/netlists/ron_sweep.scs' on river at 1:05:34 AM, Sat Jun 6, 2026 (process id: 3046580).
Current working directory: /home/yongfu/proj/switch-fitting/model/switch-model/outputs/spectre/cmos/logs/netlists
Command line:
    /eda/cadence/SPECTRE241/tools/bin/spectre -64  \
        /home/yongfu/proj/switch-fitting/model/switch-model/outputs/spectre/cmos/logs/netlists/ron_sweep.scs  \
        +log spectre_ron.log

Licensing Information:
[01:05:34.080233] Configured Lic search path (24.01-s002): /eda/cadence/license.dat

Licensing Information:
[01:05:34.218890] Periodic Lic check successful

Loading /eda/cadence/SPECTRE241/tools.lnx86/cmi/lib/64bit/5.0/libinfineon_sh.so ...
Loading /eda/cadence/SPECTRE241/tools.lnx86/cmi/lib/64bit/5.0/libphilips_I_sh.so ...
Loading /eda/cadence/SPECTRE241/tools.lnx86/cmi/lib/64bit/5.0/libphilips_sh.so ...
Loading /eda/cadence/SPECTRE241/tools.lnx86/cmi/lib/64bit/5.0/libsparam_sh.so ...
Loading /eda/cadence/SPECTRE241/tools.lnx86/cmi/lib/64bit/5.0/libstmodels_sh.so ...
Reading file:  /home/yongfu/proj/switch-fitting/model/switch-model/outputs/spectre/cmos/logs/netlists/ron_sweep.scs
Reading file:  /eda/cadence/SPECTRE241/tools.lnx86/spectre/etc/configs/spectre.cfg
Reading file:  /home/yongfu/proj/switch-fitting/model/switch-model/veriloga/configurable_switch.va
Reading file:  /eda/cadence/SPECTRE241/tools.lnx86/spectre/etc/ahdl/constants.vams
Reading file:  /eda/cadence/SPECTRE241/tools.lnx86/spectre/etc/ahdl/disciplines.vams
Time for NDB Parsing: CPU = 170.251 ms, elapsed = 372.376 ms.
Time accumulated: CPU = 258.634 ms, elapsed = 372.378 ms.
Peak resident memory used = 189 Mbytes.

Existing shared object for module configurable_switch is up to date.
Installed compiled interface for configurable_switch.
Time for Elaboration: CPU = 31.339 ms, elapsed = 15.456 ms.
Time accumulated: CPU = 290.056 ms, elapsed = 387.917 ms.
Peak resident memory used = 198 Mbytes.


Time for EDB Visiting: CPU = 467 us, elapsed = 467.062 us.
Time accumulated: CPU = 290.622 ms, elapsed = 388.483 ms.
Peak resident memory used = 200 Mbytes.


Netlist title:
        // Ron DC sweep — Spectre + Verilog-A configurable_switch


Global user options:

Scoped user options:

Circuit inventory:
              nodes 6
configurable_switch 1     
           resistor 1     
            vsource 5     

Analysis and control statement inventory:
                 dc 1     

Output statements:
             .probe 0     
           .measure 0     
               save 1     


Notice from spectre during initial setup.
    1 resistor is changed to resistance form because its value is less than 'rthresh'.

Time for parsing: CPU = 10.543 ms, elapsed = 8.95214 ms.
Time accumulated: CPU = 301.239 ms, elapsed = 397.509 ms.
Peak resident memory used = 203 Mbytes.

~~~~~~~~~~~~~~~~~~~~~~
Pre-Simulation Summary
~~~~~~~~~~~~~~~~~~~~~~
~~~~~~~~~~~~~~~~~~~~~~

*****************************************
DC Analysis `dc': Vin:dc = (0 V -> 1.8 V)
*****************************************

Opening the PSF file ./ron_sweep.raw/dc.dc ...
Important parameter values:
    reltol = 1e-03
    abstol(V) = 1 uV
    abstol(I) = 1 pA
    temp = 27 C
    tnom = 27 C
    tempeffects = all
    gmindc = 1 pS
......9......8......7......6......5......4......3......2......1......0

Maximum value achieved for any signal of each quantity: 
V: V(in) = 1.8 V
I: I(Vin:p) = 378 uA
DC simulation time: CPU = 9.907 ms, elapsed = 5.48983 ms.

Notice from spectre at dc = 1.8 V during DC analysis `dc'.
    The value of parameter 'dc' has been reset to the original value 0.

Total time required for dc analysis `dc': CPU = 9.955 ms, elapsed = 5.53703 ms, util. = 180%.
Time accumulated: CPU = 333.29 ms, elapsed = 414.195 ms.
Peak resident memory used = 206 Mbytes.

Licensing Information:
Lic Summary:
[01:05:34.313067] Cdslmd servers:/eda/cadence/license.dat
[01:05:34.837380] Feature usage summary:
[01:05:34.837381] Virtuoso_Spectre


Aggregate audit (1:05:34 AM, Sat Jun 6, 2026):
Time used: CPU = 336 ms, elapsed = 417 ms, util. = 80.7%.
Time spent in licensing: elapsed = 255 ms, percentage of total = 61.1%.
Peak memory used = 207 Mbytes.
Simulation started at: 1:05:34 AM, Sat Jun 6, 2026, ended at: 1:05:34 AM, Sat Jun 6, 2026, with elapsed time (wall clock): 417 ms.
spectre completes with 0 errors, 0 warnings, and 3 notices.
