
Spectre (R) Circuit Simulator
Version 24.1.0.167.isr2 64bit -- 28 Nov 2024
Copyright (C) 1989-2024 Cadence Design Systems, Inc. All rights reserved
        worldwide. Cadence and Spectre are registered trademarks of Cadence
        Design Systems, Inc. All others are the property of their respective
        holders.

Includes RSA BSAFE(R) Cryptographic or Security Protocol Software from RSA
        Security, Inc.

User: yongfu   Host: river   HostID: 7F0100   PID: 3047259
Memory  available: 359.8952 GB  physical: 405.0724 GB
Linux   : Red Hat Enterprise Linux release 9.7 (Plow)
CPU Type: Intel(R) Xeon(R) CPU E5-2678 v3 @ 2.50GHz
        Socket: Processors [Frequency] (Hyperthreaded Processor)
        0:       0 [3300.0] ( 24 ),  1 [3300.0] ( 25 ),  2 [3300.0] ( 26 )
                 3 [3300.0] ( 27 ),  4 [3300.0] ( 28 ),  5 [2969.6] ( 29 )
                 6 [3296.4] ( 30 ),  7 [2914.6] ( 31 ),  8 [3300.0] ( 32 )
                 9 [3300.0] ( 33 ), 10 [3300.0] ( 34 ), 11 [3300.0] ( 35 )
        1:      12 [3300.0] ( 36 ), 13 [3300.0] ( 37 ), 14 [3300.0] ( 38 )
                15 [3300.0] ( 39 ), 16 [3300.0] ( 40 ), 17 [3300.0] ( 41 )
                18 [3300.0] ( 42 ), 19 [3300.0] ( 43 ), 20 [3300.0] ( 44 )
                21 [3299.7] ( 45 ), 22 [3300.0] ( 46 ), 23 [3300.2] ( 47 )
        
System load averages (1min, 5min, 15min) : 20.2 %, 7.4 %, 5.4 %
Hyperthreading is enabled


Simulating
        `/home/yongfu/proj/switch-fitting/model/switch-model/outputs/spectre/bs/logs/netlists/ron_sweep.scs'
        on river at 1:05:43 AM, Sat Jun 6, 2026 (process id: 3047259).
Current working directory:
        /home/yongfu/proj/switch-fitting/model/switch-model/outputs/spectre/bs/logs/netlists
Command line:
    /eda/cadence/SPECTRE241/tools/bin/spectre -64  \
        /home/yongfu/proj/switch-fitting/model/switch-model/outputs/spectre/bs/logs/netlists/ron_sweep.scs
        \
        +log spectre_ron.log
Licensing Information:
[01:05:44.080241] Configured Lic search path (24.01-s002):
        /eda/cadence/license.dat

Licensing Information:
[01:05:44.334601] Periodic Lic check successful

Reading file: 
        /home/yongfu/proj/switch-fitting/model/switch-model/outputs/spectre/bs/logs/netlists/ron_sweep.scs
Reading file: 
        /eda/cadence/SPECTRE241/tools.lnx86/spectre/etc/configs/spectre.cfg
Reading file: 
        /home/yongfu/proj/switch-fitting/model/switch-model/veriloga/configurable_switch.va
Reading file: 
        /eda/cadence/SPECTRE241/tools.lnx86/spectre/etc/ahdl/constants.vams
Reading file: 
        /eda/cadence/SPECTRE241/tools.lnx86/spectre/etc/ahdl/disciplines.vams
Time for NDB Parsing: CPU = 172.157 ms, elapsed = 414.71 ms.
Time accumulated: CPU = 262.353 ms, elapsed = 414.712 ms.
Peak resident memory used = 189 Mbytes.

Existing shared object for module configurable_switch is up to date.
Installed compiled interface for configurable_switch.
Time for Elaboration: CPU = 34.281 ms, elapsed = 17.3779 ms.
Time accumulated: CPU = 296.749 ms, elapsed = 432.204 ms.
Peak resident memory used = 198 Mbytes.


Time for EDB Visiting: CPU = 1.527 ms, elapsed = 533.104 us.
Time accumulated: CPU = 298.403 ms, elapsed = 432.864 ms.
Peak resident memory used = 199 Mbytes.


Netlist title:
        // Ron DC sweep — Spectre + Verilog-A configurable_switch


Global user options:

Scoped user options:

Circuit inventory:
              nodes 6
configurable_switch 1     
           resistor 1     
            vsource 5     

Analysis and control statement inventory:
                 dc 1     

Output statements:
             .probe 0     
           .measure 0     
               save 1     


Notice from spectre during initial setup.
    1 resistor is changed to resistance form because its value is less than
        'rthresh'.

Time for parsing: CPU = 16.639 ms, elapsed = 14.5121 ms.
Time accumulated: CPU = 315.124 ms, elapsed = 447.457 ms.
Peak resident memory used = 203 Mbytes.

~~~~~~~~~~~~~~~~~~~~~~
Pre-Simulation Summary
~~~~~~~~~~~~~~~~~~~~~~
~~~~~~~~~~~~~~~~~~~~~~

*****************************************
DC Analysis `dc': Vin:dc = (0 V -> 1.8 V)
*****************************************

Opening the PSF file ./ron_sweep.raw/dc.dc ...
Important parameter values:
    reltol = 1e-03
    abstol(V) = 1 uV
    abstol(I) = 1 pA
    temp = 27 C
    tnom = 27 C
    tempeffects = all
    gmindc = 1 pS
......9......8......7......6......5......4......3......2......1......0

Maximum value achieved for any signal of each quantity: 
V: V(in) = 1.8 V
I: I(Vin:p) = 9 mA
DC simulation time: CPU = 10.442 ms, elapsed = 6.05083 ms.

Notice from spectre at dc = 1.8 V during DC analysis `dc'.
    The value of parameter 'dc' has been reset to the original value 0.

Total time required for dc analysis `dc': CPU = 10.493 ms, elapsed = 6.10089
        ms, util. = 172%.
Time accumulated: CPU = 347.517 ms, elapsed = 464.532 ms.
Peak resident memory used = 206 Mbytes.

Licensing Information:
Lic Summary:
[01:05:44.437506] Cdslmd servers:/eda/cadence/license.dat
[01:05:44.437542] Feature usage summary:
[01:05:44.437543] Virtuoso_Spectre


Aggregate audit (1:05:44 AM, Sat Jun 6, 2026):
Time used: CPU = 351 ms, elapsed = 467 ms, util. = 75%.
Time spent in licensing: elapsed = 334 ms, percentage of total = 71.5%.
Peak memory used = 207 Mbytes.
Simulation started at: 1:05:43 AM, Sat Jun 6, 2026, ended at: 1:05:44 AM, Sat
        Jun 6, 2026, with elapsed time (wall clock): 467 ms.
spectre completes with 0 errors, 0 warnings, and 3 notices.
