
Spectre (R) Circuit Simulator
Version 24.1.0.167.isr2 64bit -- 28 Nov 2024
Copyright (C) 1989-2024 Cadence Design Systems, Inc. All rights reserved worldwide. Cadence and Spectre are registered trademarks of Cadence Design Systems, Inc. All others are the property of their respective holders.

Includes RSA BSAFE(R) Cryptographic or Security Protocol Software from RSA Security, Inc.

User: yongfu   Host: river   HostID: 7F0100   PID: 3045897
Memory  available: 359.8142 GB  physical: 405.0724 GB
Linux   : Red Hat Enterprise Linux release 9.7 (Plow)
CPU Type: Intel(R) Xeon(R) CPU E5-2678 v3 @ 2.50GHz
        Socket: Processors [Frequency] (Hyperthreaded Processor)
        0:       0 [3119.8] ( 24 ),  1 [3300.0] ( 25 ),  2 [3065.0] ( 26 )
                 3 [3300.0] ( 27 ),  4 [3300.0] ( 28 ),  5 [3300.0] ( 29 )
                 6 [2929.7] ( 30 ),  7 [3300.0] ( 31 ),  8 [3300.0] ( 32 )
                 9 [3300.0] ( 33 ), 10 [3300.0] ( 34 ), 11 [3138.7] ( 35 )
        1:      12 [3300.0] ( 36 ), 13 [3300.0] ( 37 ), 14 [3300.0] ( 38 )
                15 [3300.0] ( 39 ), 16 [3229.5] ( 40 ), 17 [3300.0] ( 41 )
                18 [3300.0] ( 42 ), 19 [3300.0] ( 43 ), 20 [3300.0] ( 44 )
                21 [3300.0] ( 45 ), 22 [3155.8] ( 46 ), 23 [3300.0] ( 47 )
        
System load averages (1min, 5min, 15min) : 16.4 %, 5.8 %, 4.8 %
Hyperthreading is enabled


Simulating `/home/yongfu/proj/switch-fitting/model/switch-model/outputs/spectre/nmos/logs/netlists/ron_sweep.scs' on river at 1:05:24 AM, Sat Jun 6, 2026 (process id: 3045897).
Current working directory: /home/yongfu/proj/switch-fitting/model/switch-model/outputs/spectre/nmos/logs/netlists
Command line:
    /eda/cadence/SPECTRE241/tools/bin/spectre -64  \
        /home/yongfu/proj/switch-fitting/model/switch-model/outputs/spectre/nmos/logs/netlists/ron_sweep.scs  \
        +log spectre_ron.log

Licensing Information:
[01:05:24.080225] Configured Lic search path (24.01-s002): /eda/cadence/license.dat

Licensing Information:
[01:05:25.050465] Periodic Lic check successful

Loading /eda/cadence/SPECTRE241/tools.lnx86/cmi/lib/64bit/5.0/libinfineon_sh.so ...
Loading /eda/cadence/SPECTRE241/tools.lnx86/cmi/lib/64bit/5.0/libphilips_I_sh.so ...
Loading /eda/cadence/SPECTRE241/tools.lnx86/cmi/lib/64bit/5.0/libphilips_sh.so ...
Loading /eda/cadence/SPECTRE241/tools.lnx86/cmi/lib/64bit/5.0/libsparam_sh.so ...
Loading /eda/cadence/SPECTRE241/tools.lnx86/cmi/lib/64bit/5.0/libstmodels_sh.so ...
Reading file:  /home/yongfu/proj/switch-fitting/model/switch-model/outputs/spectre/nmos/logs/netlists/ron_sweep.scs
Reading file:  /eda/cadence/SPECTRE241/tools.lnx86/spectre/etc/configs/spectre.cfg
Reading file:  /home/yongfu/proj/switch-fitting/model/switch-model/veriloga/configurable_switch.va
Reading file:  /eda/cadence/SPECTRE241/tools.lnx86/spectre/etc/ahdl/constants.vams
Reading file:  /eda/cadence/SPECTRE241/tools.lnx86/spectre/etc/ahdl/disciplines.vams
Time for NDB Parsing: CPU = 174.484 ms, elapsed = 375.988 ms.
Time accumulated: CPU = 265.729 ms, elapsed = 375.99 ms.
Peak resident memory used = 191 Mbytes.

Existing shared object for module configurable_switch is up to date.
Installed compiled interface for configurable_switch.
Time for Elaboration: CPU = 30.095 ms, elapsed = 15.2559 ms.
Time accumulated: CPU = 295.937 ms, elapsed = 391.358 ms.
Peak resident memory used = 200 Mbytes.


Time for EDB Visiting: CPU = 1.477 ms, elapsed = 484.943 us.
Time accumulated: CPU = 297.5 ms, elapsed = 391.927 ms.
Peak resident memory used = 202 Mbytes.


Netlist title:
        // Ron DC sweep — Spectre + Verilog-A configurable_switch


Global user options:

Scoped user options:

Circuit inventory:
              nodes 6
configurable_switch 1     
           resistor 1     
            vsource 5     

Analysis and control statement inventory:
                 dc 1     

Output statements:
             .probe 0     
           .measure 0     
               save 1     


Notice from spectre during initial setup.
    1 resistor is changed to resistance form because its value is less than 'rthresh'.

Time for parsing: CPU = 15.478 ms, elapsed = 14.2269 ms.
Time accumulated: CPU = 313.069 ms, elapsed = 406.245 ms.
Peak resident memory used = 205 Mbytes.

~~~~~~~~~~~~~~~~~~~~~~
Pre-Simulation Summary
~~~~~~~~~~~~~~~~~~~~~~
~~~~~~~~~~~~~~~~~~~~~~

*****************************************
DC Analysis `dc': Vin:dc = (0 V -> 1.8 V)
*****************************************

Opening the PSF file ./ron_sweep.raw/dc.dc ...
Important parameter values:
    reltol = 1e-03
    abstol(V) = 1 uV
    abstol(I) = 1 pA
    temp = 27 C
    tnom = 27 C
    tempeffects = all
    gmindc = 1 pS
......9......8......7......6......5......4......3......2......1......0

Maximum value achieved for any signal of each quantity: 
V: V(in) = 1.8 V
I: I(Vin:p) = 1.8 pA
DC simulation time: CPU = 9.879 ms, elapsed = 5.36108 ms.

Notice from spectre at dc = 1.8 V during DC analysis `dc'.
    The value of parameter 'dc' has been reset to the original value 0.

Total time required for dc analysis `dc': CPU = 9.926 ms, elapsed = 5.40805 ms, util. = 184%.
Time accumulated: CPU = 343.605 ms, elapsed = 422.328 ms.
Peak resident memory used = 208 Mbytes.

Licensing Information:
Lic Summary:
[01:05:25.155664] Cdslmd servers:/eda/cadence/license.dat
[01:05:25.155692] Feature usage summary:
[01:05:25.155693] Virtuoso_Spectre


Aggregate audit (1:05:25 AM, Sat Jun 6, 2026):
Time used: CPU = 348 ms, elapsed = 425 ms, util. = 81.8%.
Time spent in licensing: elapsed = 251 ms, percentage of total = 59.2%.
Peak memory used = 209 Mbytes.
Simulation started at: 1:05:24 AM, Sat Jun 6, 2026, ended at: 1:05:25 AM, Sat Jun 6, 2026, with elapsed time (wall clock): 425 ms.
spectre completes with 0 errors, 0 warnings, and 3 notices.
