
Spectre (R) Circuit Simulator
Version 24.1.0.167.isr2 64bit -- 28 Nov 2024
Copyright (C) 1989-2024 Cadence Design Systems, Inc. All rights reserved worldwide. Cadence and Spectre are registered trademarks of Cadence Design Systems, Inc. All others are the property of their respective holders.

Includes RSA BSAFE(R) Cryptographic or Security Protocol Software from RSA Security, Inc.

User: yongfu   Host: river   HostID: 7F0100   PID: 3046089
Memory  available: 359.7445 GB  physical: 405.0724 GB
Linux   : Red Hat Enterprise Linux release 9.7 (Plow)
CPU Type: Intel(R) Xeon(R) CPU E5-2678 v3 @ 2.50GHz
        Socket: Processors [Frequency] (Hyperthreaded Processor)
        0:       0 [2903.9] ( 24 ),  1 [2899.1] ( 25 ),  2 [2817.5] ( 26 )
                 3 [2875.3] ( 27 ),  4 [2831.7] ( 28 ),  5 [3165.0] ( 29 )
                 6 [2821.6] ( 30 ),  7 [2829.5] ( 31 ),  8 [2814.5] ( 32 )
                 9 [2883.8] ( 33 ), 10 [3172.4] ( 34 ), 11 [2909.7] ( 35 )
        1:      12 [2888.1] ( 36 ), 13 [2809.4] ( 37 ), 14 [2871.5] ( 38 )
                15 [2799.8] ( 39 ), 16 [3198.3] ( 40 ), 17 [2886.8] ( 41 )
                18 [2868.2] ( 42 ), 19 [3295.6] ( 43 ), 20 [2847.8] ( 44 )
                21 [3300.0] ( 45 ), 22 [2826.0] ( 46 ), 23 [2806.0] ( 47 )
        
System load averages (1min, 5min, 15min) : 16.4 %, 5.8 %, 4.8 %
Hyperthreading is enabled


Simulating `/home/yongfu/proj/switch-fitting/model/switch-model/outputs/spectre/nmos/logs/netlists/parasitics_bench.scs' on river at 1:05:28 AM, Sat Jun 6, 2026 (process id: 3046089).
Current working directory: /home/yongfu/proj/switch-fitting/model/switch-model/outputs/spectre/nmos/logs/netlists
Command line:
    /eda/cadence/SPECTRE241/tools/bin/spectre -64  \
        /home/yongfu/proj/switch-fitting/model/switch-model/outputs/spectre/nmos/logs/netlists/parasitics_bench.scs  \
        +log spectre_parasitics.log

Licensing Information:
[01:05:28.080257] Configured Lic search path (24.01-s002): /eda/cadence/license.dat

Licensing Information:
[01:05:28.498168] Periodic Lic check successful

Loading /eda/cadence/SPECTRE241/tools.lnx86/cmi/lib/64bit/5.0/libinfineon_sh.so ...
Loading /eda/cadence/SPECTRE241/tools.lnx86/cmi/lib/64bit/5.0/libphilips_I_sh.so ...
Loading /eda/cadence/SPECTRE241/tools.lnx86/cmi/lib/64bit/5.0/libphilips_sh.so ...
Loading /eda/cadence/SPECTRE241/tools.lnx86/cmi/lib/64bit/5.0/libsparam_sh.so ...
Loading /eda/cadence/SPECTRE241/tools.lnx86/cmi/lib/64bit/5.0/libstmodels_sh.so ...
Reading file:  /home/yongfu/proj/switch-fitting/model/switch-model/outputs/spectre/nmos/logs/netlists/parasitics_bench.scs
Reading file:  /eda/cadence/SPECTRE241/tools.lnx86/spectre/etc/configs/spectre.cfg
Time for NDB Parsing: CPU = 158.669 ms, elapsed = 365.352 ms.
Time accumulated: CPU = 255.354 ms, elapsed = 365.354 ms.
Peak resident memory used = 186 Mbytes.

Time for Elaboration: CPU = 29.918 ms, elapsed = 15.0099 ms.
Time accumulated: CPU = 285.374 ms, elapsed = 380.465 ms.
Peak resident memory used = 195 Mbytes.


Time for EDB Visiting: CPU = 306 us, elapsed = 308.037 us.
Time accumulated: CPU = 285.778 ms, elapsed = 380.87 ms.
Peak resident memory used = 196 Mbytes.


Notice from spectre during topology check.
    Only one connection to the following 5 nodes:
        mq
        mv
        mcf
        matt
        md
        Further occurrences of this notice will be suppressed.


Netlist title:
        // Parasitic metrics — charge injection and clock feedthrough (Spectre DC export).


Global user options:

Scoped user options:

Circuit inventory:
              nodes 5
            vsource 5     

Analysis and control statement inventory:
                 dc 1     

Output statements:
             .probe 0     
           .measure 0     
               save 1     

Time for parsing: CPU = 15.51 ms, elapsed = 13.7761 ms.
Time accumulated: CPU = 301.37 ms, elapsed = 394.726 ms.
Peak resident memory used = 199 Mbytes.

~~~~~~~~~~~~~~~~~~~~~~
Pre-Simulation Summary
~~~~~~~~~~~~~~~~~~~~~~
~~~~~~~~~~~~~~~~~~~~~~

******************
DC Analysis `dcOp'
******************

Opening the PSF file ./parasitics_bench.raw/dcOp.dc ...
Important parameter values:
    reltol = 1e-03
    abstol(V) = 1 uV
    abstol(I) = 1 pA
    temp = 27 C
    tnom = 27 C
    tempeffects = all
    gmindc = 1 pS

Maximum value achieved for any signal of each quantity: 
V: V(mq) = 90 V
I: I(Vm_q:p) = 0 A
Convergence achieved in 2 iterations.
DC simulation time: CPU = 4.326 ms, elapsed = 2.85697 ms.
Total time required for dc analysis `dcOp': CPU = 4.375 ms, elapsed = 2.90513 ms, util. = 151%.
Time accumulated: CPU = 327.857 ms, elapsed = 408.797 ms.
Peak resident memory used = 202 Mbytes.

Licensing Information:
Lic Summary:
[01:05:28.065633] Cdslmd servers:/eda/cadence/license.dat
[01:05:28.589951] Feature usage summary:
[01:05:28.589951] Virtuoso_Spectre


Aggregate audit (1:05:28 AM, Sat Jun 6, 2026):
Time used: CPU = 332 ms, elapsed = 412 ms, util. = 80.7%.
Time spent in licensing: elapsed = 252 ms, percentage of total = 61.2%.
Peak memory used = 203 Mbytes.
Simulation started at: 1:05:28 AM, Sat Jun 6, 2026, ended at: 1:05:28 AM, Sat Jun 6, 2026, with elapsed time (wall clock): 412 ms.
spectre completes with 0 errors, 0 warnings, and 2 notices.
