
Spectre (R) Circuit Simulator
Version 24.1.0.167.isr2 64bit -- 28 Nov 2024
Copyright (C) 1989-2024 Cadence Design Systems, Inc. All rights reserved
        worldwide. Cadence and Spectre are registered trademarks of Cadence
        Design Systems, Inc. All others are the property of their respective
        holders.

Includes RSA BSAFE(R) Cryptographic or Security Protocol Software from RSA
        Security, Inc.

User: yongfu   Host: river   HostID: 7F0100   PID: 3046773
Memory  available: 359.7737 GB  physical: 405.0724 GB
Linux   : Red Hat Enterprise Linux release 9.7 (Plow)
CPU Type: Intel(R) Xeon(R) CPU E5-2678 v3 @ 2.50GHz
        Socket: Processors [Frequency] (Hyperthreaded Processor)
        0:       0 [2912.7] ( 24 ),  1 [2899.7] ( 25 ),  2 [3300.0] ( 26 )
                 3 [2899.1] ( 27 ),  4 [3300.0] ( 28 ),  5 [2903.3] ( 29 )
                 6 [2916.3] ( 30 ),  7 [2827.4] ( 31 ),  8 [3137.5] ( 32 )
                 9 [3288.7] ( 33 ), 10 [3300.0] ( 34 ), 11 [3300.0] ( 35 )
        1:      12 [3300.0] ( 36 ), 13 [3300.0] ( 37 ), 14 [3300.0] ( 38 )
                15 [3300.0] ( 39 ), 16 [3080.8] ( 40 ), 17 [3300.0] ( 41 )
                18 [3300.0] ( 42 ), 19 [3186.2] ( 43 ), 20 [3300.0] ( 44 )
                21 [3300.0] ( 45 ), 22 [3300.0] ( 46 ), 23 [3300.0] ( 47 )
        
System load averages (1min, 5min, 15min) : 22.3 %, 7.3 %, 5.3 %
Hyperthreading is enabled


Simulating
        `/home/yongfu/proj/switch-fitting/model/switch-model/outputs/spectre/cmos/logs/netlists/parasitics_bench.scs'
        on river at 1:05:37 AM, Sat Jun 6, 2026 (process id: 3046773).
Current working directory:
        /home/yongfu/proj/switch-fitting/model/switch-model/outputs/spectre/cmos/logs/netlists
Command line:
    /eda/cadence/SPECTRE241/tools/bin/spectre -64  \
        /home/yongfu/proj/switch-fitting/model/switch-model/outputs/spectre/cmos/logs/netlists/parasitics_bench.scs
        \
        +log spectre_parasitics.log
Licensing Information:
[01:05:37.080257] Configured Lic search path (24.01-s002):
        /eda/cadence/license.dat

Licensing Information:
[01:05:37.446480] Periodic Lic check successful

Reading file: 
        /home/yongfu/proj/switch-fitting/model/switch-model/outputs/spectre/cmos/logs/netlists/parasitics_bench.scs
Reading file: 
        /eda/cadence/SPECTRE241/tools.lnx86/spectre/etc/configs/spectre.cfg
Time for NDB Parsing: CPU = 163.253 ms, elapsed = 368.516 ms.
Time accumulated: CPU = 254.076 ms, elapsed = 368.518 ms.
Peak resident memory used = 187 Mbytes.

Time for Elaboration: CPU = 30.123 ms, elapsed = 15.208 ms.
Time accumulated: CPU = 284.313 ms, elapsed = 383.839 ms.
Peak resident memory used = 196 Mbytes.


Time for EDB Visiting: CPU = 1.332 ms, elapsed = 339.985 us.
Time accumulated: CPU = 285.749 ms, elapsed = 384.283 ms.
Peak resident memory used = 196 Mbytes.


Notice from spectre during topology check.
    Only one connection to the following 5 nodes:
        mq
        mv
        mcf
        matt
        md
        Further occurrences of this notice will be suppressed (except in log
        file).


Netlist title:
        // Parasitic metrics — charge injection and clock feedthrough
        (Spectre DC export).


Global user options:

Scoped user options:

Circuit inventory:
              nodes 5
            vsource 5     

Analysis and control statement inventory:
                 dc 1     

Output statements:
             .probe 0     
           .measure 0     
               save 1     

Time for parsing: CPU = 14.53 ms, elapsed = 13.36 ms.
Time accumulated: CPU = 300.358 ms, elapsed = 397.721 ms.
Peak resident memory used = 200 Mbytes.

~~~~~~~~~~~~~~~~~~~~~~
Pre-Simulation Summary
~~~~~~~~~~~~~~~~~~~~~~
~~~~~~~~~~~~~~~~~~~~~~

******************
DC Analysis `dcOp'
******************

Opening the PSF file ./parasitics_bench.raw/dcOp.dc ...
Important parameter values:
    reltol = 1e-03
    abstol(V) = 1 uV
    abstol(I) = 1 pA
    temp = 27 C
    tnom = 27 C
    tempeffects = all
    gmindc = 1 pS

Maximum value achieved for any signal of each quantity: 
V: V(mq) = 90 V
I: I(Vm_q:p) = 0 A
Convergence achieved in 2 iterations.
DC simulation time: CPU = 4.456 ms, elapsed = 2.98715 ms.
Total time required for dc analysis `dcOp': CPU = 4.508 ms, elapsed = 3.04008
        ms, util. = 148%.
Time accumulated: CPU = 327.21 ms, elapsed = 412.161 ms.
Peak resident memory used = 203 Mbytes.

Licensing Information:
Lic Summary:
[01:05:38.064193] Cdslmd servers:/eda/cadence/license.dat
[01:05:38.064222] Feature usage summary:
[01:05:38.064223] Virtuoso_Spectre


Aggregate audit (1:05:38 AM, Sat Jun 6, 2026):
Time used: CPU = 331 ms, elapsed = 415 ms, util. = 79.9%.
Time spent in licensing: elapsed = 253 ms, percentage of total = 61%.
Peak memory used = 204 Mbytes.
Simulation started at: 1:05:37 AM, Sat Jun 6, 2026, ended at: 1:05:38 AM, Sat
        Jun 6, 2026, with elapsed time (wall clock): 415 ms.
spectre completes with 0 errors, 0 warnings, and 2 notices.
