
Spectre (R) Circuit Simulator
Version 24.1.0.167.isr2 64bit -- 28 Nov 2024
Copyright (C) 1989-2024 Cadence Design Systems, Inc. All rights reserved
        worldwide. Cadence and Spectre are registered trademarks of Cadence
        Design Systems, Inc. All others are the property of their respective
        holders.

Includes RSA BSAFE(R) Cryptographic or Security Protocol Software from RSA
        Security, Inc.

User: yongfu   Host: river   HostID: 7F0100   PID: 2258638
Memory  available: 355.8011 GB  physical: 405.0724 GB
Linux   : Red Hat Enterprise Linux release 9.7 (Plow)
CPU Type: Intel(R) Xeon(R) CPU E5-2678 v3 @ 2.50GHz
        Socket: Processors [Frequency] (Hyperthreaded Processor)
        0:       0 [2799.7] ( 24 ),  1 [2799.7] ( 25 ),  2 [2799.7] ( 26 )
                 3 [2799.7] ( 27 ),  4 [2799.7] ( 28 ),  5 [2799.7] ( 29 )
                 6 [2799.7] ( 30 ),  7 [2799.7] ( 31 ),  8 [2799.7] ( 32 )
                 9 [2799.7] ( 33 ), 10 [2799.7] ( 34 ), 11 [2799.7] ( 35 )
        1:      12 [2801.6] ( 36 ), 13 [2801.8] ( 37 ), 14 [2801.8] ( 38 )
                15 [2801.8] ( 39 ), 16 [2801.8] ( 40 ), 17 [2801.8] ( 41 )
                18 [2801.8] ( 42 ), 19 [2801.8] ( 43 ), 20 [2801.6] ( 44 )
                21 [2801.8] ( 45 ), 22 [2801.8] ( 46 ), 23 [2801.8] ( 47 )
        
System load averages (1min, 5min, 15min) : 113.9 %, 50.1 %, 22.0 %
Hyperthreading is enabled


Simulating
        `/home/yongfu/proj/switch-model/outputs/spectre/bs_dummy/logs/netlists/ron_sweep.scs'
        on river at 5:48:46 PM, Fri Jun 5, 2026 (process id: 2258638).
Current working directory:
        /home/yongfu/proj/switch-model/outputs/spectre/bs_dummy/logs/netlists
Command line:
    /eda/cadence/SPECTRE241/tools/bin/spectre -64  \
        /home/yongfu/proj/switch-model/outputs/spectre/bs_dummy/logs/netlists/ron_sweep.scs
        \
        +log spectre_ron.log
Licensing Information:
[17:48:47.080377] Configured Lic search path (24.01-s002):
        /eda/cadence/license.dat

Licensing Information:
[17:48:47.493771] Periodic Lic check successful

Reading file: 
        /home/yongfu/proj/switch-model/outputs/spectre/bs_dummy/logs/netlists/ron_sweep.scs
Reading file: 
        /eda/cadence/SPECTRE241/tools.lnx86/spectre/etc/configs/spectre.cfg
Reading file:  /home/yongfu/proj/switch-model/veriloga/configurable_switch.va
Reading file: 
        /eda/cadence/SPECTRE241/tools.lnx86/spectre/etc/ahdl/constants.vams
Reading file: 
        /eda/cadence/SPECTRE241/tools.lnx86/spectre/etc/ahdl/disciplines.vams

Error found by spectre during AHDL read-in.
    ERROR (VACOMP-2152):
        "/home/yongfu/proj/switch-model/veriloga/configurable_switch.va", line
        128: Encountered the `ddt' analog operator embedded in a
        conditionally-executed statement or in an expression. The software does
        not support this use. Do not use the `ddt' analog operator in a
        conditionally-executed statement or in an expression.
    ERROR (VACOMP-2152):
        "/home/yongfu/proj/switch-model/veriloga/configurable_switch.va", line
        130: Encountered the `ddt' analog operator embedded in a
        conditionally-executed statement or in an expression. The software does
        not support this use. Do not use the `ddt' analog operator in a
        conditionally-executed statement or in an expression.

Time for NDB Parsing: CPU = 278.651 ms, elapsed = 724.54 ms.
Time accumulated: CPU = 410.248 ms, elapsed = 724.543 ms.
Peak resident memory used = 194 Mbytes.

Licensing Information:
Lic Summary:
[17:48:47.118961] Cdslmd servers:/eda/cadence/license.dat
[17:48:47.643293] Feature usage summary:
[17:48:47.643294] Virtuoso_Spectre


Aggregate audit (5:48:47 PM, Fri Jun 5, 2026):
Time used: CPU = 424 ms, elapsed = 737 ms, util. = 57.5%.
Time spent in licensing: elapsed = 362 ms, percentage of total = 49.1%.
Peak memory used = 195 Mbytes.
Simulation started at: 5:48:46 PM, Fri Jun 5, 2026, ended at: 5:48:47 PM, Fri
        Jun 5, 2026, with elapsed time (wall clock): 737 ms.
spectre completes with 2 errors, 0 warnings, and 0 notices.
spectre terminated prematurely due to fatal error.
